*----------------------------------------------------------------------
* SPICE Model generated by Murata Manufacturing Co., Ltd.
* Copyright(C) Murata Manufacturing Co., Ltd.
* MURATA P/N : BLM18RK601SN1
* Property : Z@100MHz = 600[ohm]
*----------------------------------------------------------------------
* Applicable Conditions:
*   Frequency Range = 1MHz - 3GHz
*   Temperature = 25 degC
*   DC Bias Current = 0 A
*   Small Signal Operation
*----------------------------------------------------------------------
.SUBCKT BLM18RK601SN1 port1 port2
R1 port1 1 356.0
L1 port1 1 6.525e-6
C1 port1 2 6.387e-13
R2 1 2 394.7
L2 1 2 7.313e-7
R3 2 3 14.09
L3 2 3 7.960e-8
R4 3 port2 3.000e-1
.ENDS BLM18RK601SN1
*----------------------------------------------------------------------
