Version 4
SHEET 1 880 680
WIRE 224 96 128 96
WIRE 384 96 304 96
WIRE 512 96 448 96
WIRE 640 96 576 96
WIRE 128 144 128 96
WIRE 128 288 128 224
WIRE 640 288 640 96
FLAG 128 288 0
FLAG 640 288 0
SYMBOL voltage 128 128 R0
WINDOW 123 0 0 Left 0
WINDOW 39 0 0 Left 0
SYMATTR InstName V1
SYMATTR Value 12
SYMBOL res 208 112 R270
WINDOW 0 32 56 VTop 2
WINDOW 3 0 56 VBottom 2
SYMATTR InstName R1
SYMATTR Value 520
SYMBOL LED 384 112 R270
WINDOW 0 32 32 VTop 2
WINDOW 3 0 32 VBottom 2
SYMATTR InstName D1
SYMATTR Value NSCW100
SYMATTR Description Diode
SYMATTR Type diode
SYMBOL LED 512 112 R270
WINDOW 0 32 32 VTop 2
WINDOW 3 0 32 VBottom 2
SYMATTR InstName D2
SYMATTR Value NSCW100
SYMATTR Description Diode
SYMATTR Type diode
TEXT 96 336 Left 2 !.tran 1
