Version 4
SHEET 1 880 680
WIRE 224 96 128 96
WIRE 384 96 304 96
WIRE 512 96 464 96
WIRE 128 144 128 96
WIRE 128 288 128 224
WIRE 512 288 512 96
FLAG 128 288 0
FLAG 512 288 0
SYMBOL voltage 128 128 R0
WINDOW 123 0 0 Left 0
WINDOW 39 0 0 Left 0
SYMATTR InstName V1
SYMATTR Value 5
SYMBOL res 208 112 R270
WINDOW 0 32 56 VTop 2
WINDOW 3 0 56 VBottom 2
SYMATTR InstName R1
SYMATTR Value 110
SYMBOL voltage 368 96 R270
WINDOW 0 32 56 VTop 2
WINDOW 3 -32 56 VBottom 2
WINDOW 123 0 0 Left 0
WINDOW 39 0 0 Left 0
SYMATTR InstName V2
SYMATTR Value 2.8
TEXT 94 336 Left 2 !.tran 1
